
     RDKit          3D

 39 39  0  0  0  0  0  0  0  0999 V2000
   -1.5147   -1.6892   -0.9789 C   0  0  0  0  0  0  0  0  0  0  0  0
   -1.3007   -0.7311    0.2032 C   0  0  2  0  0  0  0  0  0  0  0  0
   -2.0532    0.6087   -0.0370 C   0  0  0  0  0  0  0  0  0  0  0  0
   -3.5077    0.4618   -0.2570 N   0  0  0  0  0  0  0  0  0  0  0  0
   -4.0665    1.7237   -0.7534 C   0  0  0  0  0  0  0  0  0  0  0  0
   -4.2090    0.0669    0.9668 C   0  0  0  0  0  0  0  0  0  0  0  0
    0.2125   -0.4991    0.5533 C   0  0  2  0  0  0  0  0  0  0  0  0
    0.9041   -1.8314    0.8940 C   0  0  0  0  0  0  0  0  0  0  0  0
    0.2397    0.3064    1.7486 O   0  0  0  0  0  0  0  0  0  0  0  0
    0.9736    0.2733   -0.5623 C   0  0  0  0  0  0  0  0  0  0  0  0
    2.4761    0.3848   -0.3826 C   0  0  0  0  0  0  0  0  0  0  0  0
    3.3468   -0.3685   -1.1840 C   0  0  0  0  0  0  0  0  0  0  0  0
    4.7298   -0.2661   -1.0167 C   0  0  0  0  0  0  0  0  0  0  0  0
    5.2490    0.5907   -0.0489 C   0  0  0  0  0  0  0  0  0  0  0  0
    6.9530    0.7147    0.1573 Cl  0  0  0  0  0  0  0  0  0  0  0  0
    4.3979    1.3469    0.7528 C   0  0  0  0  0  0  0  0  0  0  0  0
    3.0155    1.2446    0.5850 C   0  0  0  0  0  0  0  0  0  0  0  0
   -1.1493   -1.2636   -1.9182 H   0  0  0  0  0  0  0  0  0  0  0  0
   -2.5781   -1.9147   -1.1124 H   0  0  0  0  0  0  0  0  0  0  0  0
   -1.0135   -2.6477   -0.8185 H   0  0  0  0  0  0  0  0  0  0  0  0
   -1.7479   -1.2028    1.0881 H   0  0  0  0  0  0  0  0  0  0  0  0
   -1.8718    1.3032    0.7931 H   0  0  0  0  0  0  0  0  0  0  0  0
   -1.6241    1.0713   -0.9345 H   0  0  0  0  0  0  0  0  0  0  0  0
   -3.9296    2.5452   -0.0409 H   0  0  0  0  0  0  0  0  0  0  0  0
   -3.5975    2.0065   -1.7025 H   0  0  0  0  0  0  0  0  0  0  0  0
   -5.1379    1.6172   -0.9573 H   0  0  0  0  0  0  0  0  0  0  0  0
   -3.9000   -0.9284    1.2996 H   0  0  0  0  0  0  0  0  0  0  0  0
   -5.2882    0.0002    0.7860 H   0  0  0  0  0  0  0  0  0  0  0  0
   -4.0434    0.7758    1.7861 H   0  0  0  0  0  0  0  0  0  0  0  0
    1.8598   -1.6659    1.4041 H   0  0  0  0  0  0  0  0  0  0  0  0
    0.2950   -2.4180    1.5916 H   0  0  0  0  0  0  0  0  0  0  0  0
    1.0889   -2.4395    0.0034 H   0  0  0  0  0  0  0  0  0  0  0  0
   -0.0884   -0.2399    2.4841 H   0  0  0  0  0  0  0  0  0  0  0  0
    0.5938    1.3007   -0.6322 H   0  0  0  0  0  0  0  0  0  0  0  0
    0.7819   -0.1910   -1.5363 H   0  0  0  0  0  0  0  0  0  0  0  0
    2.9547   -1.0415   -1.9433 H   0  0  0  0  0  0  0  0  0  0  0  0
    5.3938   -0.8554   -1.6430 H   0  0  0  0  0  0  0  0  0  0  0  0
    4.7999    2.0153    1.5089 H   0  0  0  0  0  0  0  0  0  0  0  0
    2.3558    1.8358    1.2181 H   0  0  0  0  0  0  0  0  0  0  0  0
  1  2  1  0
  2  3  1  0
  3  4  1  0
  4  5  1  0
  4  6  1  0
  2  7  1  0
  7  8  1  0
  7  9  1  1
  7 10  1  0
 10 11  1  0
 11 12  2  0
 12 13  1  0
 13 14  2  0
 14 15  1  0
 14 16  1  0
 16 17  2  0
 17 11  1  0
  1 18  1  0
  1 19  1  0
  1 20  1  0
  2 21  1  1
  3 22  1  0
  3 23  1  0
  5 24  1  0
  5 25  1  0
  5 26  1  0
  6 27  1  0
  6 28  1  0
  6 29  1  0
  8 30  1  0
  8 31  1  0
  8 32  1  0
  9 33  1  0
 10 34  1  0
 10 35  1  0
 12 36  1  0
 13 37  1  0
 16 38  1  0
 17 39  1  0
M  END
$$$$
