
     RDKit          3D

 25 25  0  0  0  0  0  0  0  0999 V2000
   -2.3572    0.4994   -0.5879 C   0  0  0  0  0  0  0  0  0  0  0  0
   -1.7461   -0.8681   -0.2735 C   0  0  2  0  0  0  0  0  0  0  0  0
   -2.8650   -1.7736    0.0709 N   0  0  0  0  0  0  0  0  0  0  0  0
   -0.6947   -0.8280    0.8771 C   0  0  2  0  0  0  0  0  0  0  0  0
   -1.3133   -0.4009    2.0977 O   0  0  0  0  0  0  0  0  0  0  0  0
    0.5382   -0.0021    0.5648 C   0  0  0  0  0  0  0  0  0  0  0  0
    0.6129    1.3622    0.8936 C   0  0  0  0  0  0  0  0  0  0  0  0
    1.7542    2.1078    0.5918 C   0  0  0  0  0  0  0  0  0  0  0  0
    2.8334    1.5011   -0.0459 C   0  0  0  0  0  0  0  0  0  0  0  0
    2.7638    0.1554   -0.3823 C   0  0  0  0  0  0  0  0  0  0  0  0
    3.8408   -0.3961   -1.0110 O   0  0  0  0  0  0  0  0  0  0  0  0
    1.6306   -0.5992   -0.0866 C   0  0  0  0  0  0  0  0  0  0  0  0
   -1.6014    1.1900   -0.9744 H   0  0  0  0  0  0  0  0  0  0  0  0
   -2.8168    0.9553    0.2959 H   0  0  0  0  0  0  0  0  0  0  0  0
   -3.1307    0.4126   -1.3601 H   0  0  0  0  0  0  0  0  0  0  0  0
   -1.2709   -1.2521   -1.1841 H   0  0  0  0  0  0  0  0  0  0  0  0
   -2.4937   -2.6938    0.3023 H   0  0  0  0  0  0  0  0  0  0  0  0
   -3.2623   -1.4294    0.9510 H   0  0  0  0  0  0  0  0  0  0  0  0
   -0.3620   -1.8564    1.0721 H   0  0  0  0  0  0  0  0  0  0  0  0
   -0.5935   -0.2034    2.7219 H   0  0  0  0  0  0  0  0  0  0  0  0
   -0.2266    1.8581    1.3788 H   0  0  0  0  0  0  0  0  0  0  0  0
    1.7996    3.1629    0.8491 H   0  0  0  0  0  0  0  0  0  0  0  0
    3.7233    2.0765   -0.2847 H   0  0  0  0  0  0  0  0  0  0  0  0
    3.6490   -1.3278   -1.2050 H   0  0  0  0  0  0  0  0  0  0  0  0
    1.5882   -1.6504   -0.3581 H   0  0  0  0  0  0  0  0  0  0  0  0
  1  2  1  0
  2  3  1  0
  2  4  1  0
  4  5  1  0
  4  6  1  0
  6  7  2  0
  7  8  1  0
  8  9  2  0
  9 10  1  0
 10 11  1  0
 10 12  2  0
 12  6  1  0
  1 13  1  0
  1 14  1  0
  1 15  1  0
  2 16  1  6
  3 17  1  0
  3 18  1  0
  4 19  1  1
  5 20  1  0
  7 21  1  0
  8 22  1  0
  9 23  1  0
 11 24  1  0
 12 25  1  0
M  END
$$$$
