
     RDKit          3D

 26 26  0  0  0  0  0  0  0  0999 V2000
   -2.1055    1.1555   -0.7117 C   0  0  0  0  0  0  0  0  0  0  0  0
   -2.1381   -0.2927   -0.2143 C   0  0  2  0  0  0  0  0  0  0  0  0
   -3.4871   -0.5462    0.3316 N   0  0  0  0  0  0  0  0  0  0  0  0
   -1.0213   -0.6010    0.8320 C   0  0  2  0  0  0  0  0  0  0  0  0
   -1.1861    0.2254    1.9899 O   0  0  0  0  0  0  0  0  0  0  0  0
    0.3838   -0.4673    0.2743 C   0  0  0  0  0  0  0  0  0  0  0  0
    0.8735   -1.4453   -0.6144 C   0  0  0  0  0  0  0  0  0  0  0  0
    2.1580   -1.3457   -1.1546 C   0  0  0  0  0  0  0  0  0  0  0  0
    2.9564   -0.2686   -0.8061 C   0  0  0  0  0  0  0  0  0  0  0  0
    4.2121   -0.1698   -1.3330 O   0  0  0  0  0  0  0  0  0  0  0  0
    2.4922    0.7058    0.0716 C   0  0  0  0  0  0  0  0  0  0  0  0
    3.3326    1.7416    0.3758 O   0  0  0  0  0  0  0  0  0  0  0  0
    1.2140    0.6160    0.6128 C   0  0  0  0  0  0  0  0  0  0  0  0
   -2.2180    1.8718    0.1097 H   0  0  0  0  0  0  0  0  0  0  0  0
   -1.1650    1.3753   -1.2268 H   0  0  0  0  0  0  0  0  0  0  0  0
   -2.9137    1.3392   -1.4292 H   0  0  0  0  0  0  0  0  0  0  0  0
   -2.0090   -0.9545   -1.0788 H   0  0  0  0  0  0  0  0  0  0  0  0
   -3.5210   -1.4449    0.8085 H   0  0  0  0  0  0  0  0  0  0  0  0
   -3.7451    0.1784    0.9986 H   0  0  0  0  0  0  0  0  0  0  0  0
   -1.1322   -1.6359    1.1827 H   0  0  0  0  0  0  0  0  0  0  0  0
   -2.0622    0.0118    2.3499 H   0  0  0  0  0  0  0  0  0  0  0  0
    0.2546   -2.2963   -0.8924 H   0  0  0  0  0  0  0  0  0  0  0  0
    2.5313   -2.1010   -1.8392 H   0  0  0  0  0  0  0  0  0  0  0  0
    4.5718    0.6535   -0.9464 H   0  0  0  0  0  0  0  0  0  0  0  0
    2.8741    2.3168    1.0128 H   0  0  0  0  0  0  0  0  0  0  0  0
    0.8499    1.3780    1.2964 H   0  0  0  0  0  0  0  0  0  0  0  0
  1  2  1  0
  2  3  1  0
  2  4  1  0
  4  5  1  0
  4  6  1  0
  6  7  2  0
  7  8  1  0
  8  9  2  0
  9 10  1  0
  9 11  1  0
 11 12  1  0
 11 13  2  0
 13  6  1  0
  1 14  1  0
  1 15  1  0
  1 16  1  0
  2 17  1  6
  3 18  1  0
  3 19  1  0
  4 20  1  1
  5 21  1  0
  7 22  1  0
  8 23  1  0
 10 24  1  0
 12 25  1  0
 13 26  1  0
M  END
$$$$
