
     RDKit          3D

 32 32  0  0  0  0  0  0  0  0999 V2000
    3.9220   -1.8570    0.5913 C   0  0  0  0  0  0  0  0  0  0  0  0
    3.7778   -0.6501   -0.1468 O   0  0  0  0  0  0  0  0  0  0  0  0
    2.5442   -0.0621   -0.1425 C   0  0  0  0  0  0  0  0  0  0  0  0
    2.4605    1.1223   -0.8692 C   0  0  0  0  0  0  0  0  0  0  0  0
    1.2569    1.8263   -0.9530 C   0  0  0  0  0  0  0  0  0  0  0  0
    0.1118    1.3512   -0.3075 C   0  0  0  0  0  0  0  0  0  0  0  0
   -1.1076    1.9777   -0.3422 O   0  0  0  0  0  0  0  0  0  0  0  0
   -1.2428    3.1036   -1.2034 C   0  0  0  0  0  0  0  0  0  0  0  0
    0.1780    0.1596    0.4416 C   0  0  0  0  0  0  0  0  0  0  0  0
   -1.0166   -0.4526    1.1663 C   0  0  1  0  0  0  0  0  0  0  0  0
   -1.9441    0.5066    1.6883 O   0  0  0  0  0  0  0  0  0  0  0  0
   -1.7806   -1.5160    0.3144 C   0  0  2  0  0  0  0  0  0  0  0  0
   -2.4597   -0.9335   -0.9269 C   0  0  0  0  0  0  0  0  0  0  0  0
   -2.8391   -2.1676    1.1191 N   0  0  0  0  0  0  0  0  0  0  0  0
    1.4061   -0.5385    0.5068 C   0  0  0  0  0  0  0  0  0  0  0  0
    3.2791   -2.6457    0.1868 H   0  0  0  0  0  0  0  0  0  0  0  0
    4.9598   -2.1889    0.4900 H   0  0  0  0  0  0  0  0  0  0  0  0
    3.7268   -1.6941    1.6564 H   0  0  0  0  0  0  0  0  0  0  0  0
    3.3431    1.5041   -1.3774 H   0  0  0  0  0  0  0  0  0  0  0  0
    1.2537    2.7448   -1.5304 H   0  0  0  0  0  0  0  0  0  0  0  0
   -0.6187    3.9355   -0.8618 H   0  0  0  0  0  0  0  0  0  0  0  0
   -2.2860    3.4312   -1.1605 H   0  0  0  0  0  0  0  0  0  0  0  0
   -1.0201    2.8377   -2.2420 H   0  0  0  0  0  0  0  0  0  0  0  0
   -0.6254   -0.9596    2.0585 H   0  0  0  0  0  0  0  0  0  0  0  0
   -1.8942    1.2841    1.1007 H   0  0  0  0  0  0  0  0  0  0  0  0
   -1.0791   -2.2940   -0.0096 H   0  0  0  0  0  0  0  0  0  0  0  0
   -3.1582   -0.1290   -0.6723 H   0  0  0  0  0  0  0  0  0  0  0  0
   -1.7219   -0.5367   -1.6310 H   0  0  0  0  0  0  0  0  0  0  0  0
   -3.0229   -1.7072   -1.4618 H   0  0  0  0  0  0  0  0  0  0  0  0
   -3.4309   -1.4151    1.4871 H   0  0  0  0  0  0  0  0  0  0  0  0
   -2.4159   -2.5754    1.9525 H   0  0  0  0  0  0  0  0  0  0  0  0
    1.4439   -1.4614    1.0786 H   0  0  0  0  0  0  0  0  0  0  0  0
  1  2  1  0
  2  3  1  0
  3  4  2  0
  4  5  1  0
  5  6  2  0
  6  7  1  0
  7  8  1  0
  6  9  1  0
  9 10  1  0
 10 11  1  0
 10 12  1  0
 12 13  1  0
 12 14  1  0
  9 15  2  0
 15  3  1  0
  1 16  1  0
  1 17  1  0
  1 18  1  0
  4 19  1  0
  5 20  1  0
  8 21  1  0
  8 22  1  0
  8 23  1  0
 10 24  1  1
 11 25  1  0
 12 26  1  6
 13 27  1  0
 13 28  1  0
 13 29  1  0
 14 30  1  0
 14 31  1  0
 15 32  1  0
M  END
$$$$
